Version 4
SHEET 1 1292 680
WIRE 64 -624 -416 -624
WIRE 256 -624 64 -624
WIRE 416 -624 256 -624
WIRE 544 -624 416 -624
WIRE 672 -624 544 -624
WIRE 912 -624 672 -624
WIRE 1008 -624 912 -624
WIRE 256 -592 256 -624
WIRE 416 -592 416 -624
WIRE 544 -592 544 -624
WIRE 672 -592 672 -624
WIRE 912 -592 912 -624
WIRE 64 -576 64 -624
WIRE 64 -480 64 -512
WIRE 416 -464 416 -512
WIRE 544 -464 544 -528
WIRE 544 -464 416 -464
WIRE 672 -464 672 -512
WIRE 672 -464 544 -464
WIRE 784 -464 672 -464
WIRE 912 -464 912 -512
WIRE 912 -464 848 -464
WIRE 672 -416 672 -464
WIRE -64 -336 -176 -336
WIRE 256 -336 256 -512
WIRE 256 -336 80 -336
WIRE 624 -336 256 -336
WIRE -176 -320 -176 -336
WIRE -160 -320 -176 -320
WIRE 256 -304 256 -336
WIRE 256 -192 256 -224
WIRE -416 -144 -416 -624
WIRE 432 -144 -416 -144
WIRE 432 -112 432 -144
WIRE 672 -96 672 -320
WIRE 880 -96 672 -96
WIRE -416 -48 -416 -144
WIRE 672 0 672 -96
WIRE 880 32 880 -96
WIRE -224 80 -272 80
WIRE -96 80 -144 80
WIRE 48 80 -32 80
WIRE 208 80 128 80
WIRE 432 80 432 -32
WIRE 432 80 208 80
WIRE 624 80 432 80
WIRE -416 96 -416 32
WIRE 432 160 432 80
WIRE 672 160 672 96
WIRE 208 176 208 80
WIRE -272 208 -272 80
WIRE 208 336 208 240
WIRE 432 336 432 240
WIRE 432 336 208 336
WIRE 672 336 672 240
WIRE 672 336 432 336
WIRE 880 336 880 96
WIRE 880 336 672 336
WIRE -272 368 -272 288
WIRE 432 384 432 336
FLAG 64 -480 0
FLAG 256 -192 0
FLAG -416 96 0
FLAG 432 384 0
FLAG -272 368 0
FLAG 672 -464 Vc1
FLAG 672 -624 9V
FLAG 432 -144 9V
FLAG 672 -96 Ve1
FLAG -160 -240 0
SYMBOL res 272 -208 R180
WINDOW 0 36 76 Left 2
WINDOW 3 36 40 Left 2
SYMATTR InstName R2
SYMATTR Value 22k
SYMBOL res 272 -496 R180
WINDOW 0 36 76 Left 2
WINDOW 3 36 40 Left 2
SYMATTR InstName R1
SYMATTR Value 18k
SYMBOL cap 48 -576 R0
SYMATTR InstName Cvdd
SYMATTR Value 10µ
SYMBOL res 400 -608 R0
SYMATTR InstName R5
SYMATTR Value 37k
SYMBOL cap 528 -592 R0
SYMATTR InstName C1
SYMATTR Value 90p
SYMBOL ind 656 -608 R0
SYMATTR InstName L1
SYMATTR Value 500µ
SYMBOL ind 896 -608 R0
SYMATTR InstName Lant
SYMATTR Value 600µ
SYMBOL cap 848 -480 R90
WINDOW 0 0 32 VBottom 2
WINDOW 3 32 32 VTop 2
SYMATTR InstName Cant
SYMATTR Value 64p
SYMBOL BS170 624 -416 R0
SYMATTR InstName U1
SYMBOL voltage -416 -64 R0
WINDOW 123 0 0 Left 2
WINDOW 39 0 0 Left 2
SYMATTR InstName DCsource
SYMATTR Value 9
SYMBOL res 416 -128 R0
SYMATTR InstName R3
SYMATTR Value 32k
SYMBOL BS170 624 0 R0
SYMATTR InstName U2
SYMBOL cap 864 32 R0
SYMATTR InstName CE
SYMATTR Value 333.3n
SYMBOL res 416 144 R0
SYMATTR InstName R4
SYMATTR Value 15k
SYMBOL res 656 144 R0
SYMATTR InstName RE
SYMATTR Value 490
SYMBOL cap 192 176 R0
SYMATTR InstName C2
SYMATTR Value 795p
SYMBOL res 144 64 R90
WINDOW 0 0 56 VBottom 2
WINDOW 3 32 56 VTop 2
SYMATTR InstName R7
SYMATTR Value 100k
SYMBOL cap -32 64 R90
WINDOW 0 0 32 VBottom 2
WINDOW 3 32 32 VTop 2
SYMATTR InstName Cc2
SYMATTR Value .15µ
SYMBOL res -128 64 R90
WINDOW 0 0 56 VBottom 2
WINDOW 3 32 56 VTop 2
SYMATTR InstName Rsig
SYMATTR Value 400
SYMBOL voltage -272 192 R0
WINDOW 123 24 124 Left 2
WINDOW 39 0 0 Left 2
WINDOW 3 24 44 Left 2
SYMATTR Value2 AC 2 0
SYMATTR InstName lineOut
SYMATTR Value SINE(0 1 5k)
SYMBOL voltage -160 -336 R0
WINDOW 123 0 0 Left 2
WINDOW 39 0 0 Left 2
SYMATTR InstName V1
SYMATTR Value SINE(10 1 800k)
SYMBOL res 96 -352 R90
WINDOW 0 0 56 VBottom 2
WINDOW 3 32 56 VTop 2
SYMATTR InstName R6
SYMATTR Value 100k
SYMBOL cap 0 -352 R90
WINDOW 0 0 32 VBottom 2
WINDOW 3 32 32 VTop 2
SYMATTR InstName C3
SYMATTR Value 175p
TEXT -450 408 Left 2 !.tran 0 .5 0 1n
