Version 4
SHEET 1 996 680
WIRE 144 -96 0 -96
WIRE 336 -96 144 -96
WIRE 576 -96 336 -96
WIRE 576 -16 576 -96
WIRE 336 0 336 -96
WIRE 576 80 576 64
WIRE 784 80 576 80
WIRE 944 80 784 80
WIRE 0 96 0 -96
WIRE 144 96 144 -96
WIRE 576 128 576 80
WIRE 784 144 784 80
WIRE 336 208 336 80
WIRE 336 208 240 208
WIRE 528 208 336 208
WIRE 240 272 240 208
WIRE 336 272 336 208
WIRE 576 272 576 224
WIRE 944 272 944 80
WIRE 576 384 576 352
WIRE 784 384 784 208
WIRE 784 384 576 384
WIRE 576 416 576 384
WIRE 784 416 784 384
WIRE 0 592 0 176
WIRE 144 592 144 160
WIRE 144 592 0 592
WIRE 240 592 240 336
WIRE 240 592 144 592
WIRE 336 592 336 352
WIRE 336 592 240 592
WIRE 576 592 576 496
WIRE 576 592 336 592
WIRE 784 592 784 480
WIRE 784 592 576 592
WIRE 944 592 944 336
WIRE 944 592 784 592
WIRE 0 640 0 592
FLAG 0 640 0
SYMBOL voltage 0 80 R0
WINDOW 123 0 0 Left 2
WINDOW 39 0 0 Left 2
SYMATTR InstName V1
SYMATTR Value 9
SYMBOL cap 128 96 R0
SYMATTR InstName Cvdd
SYMATTR Value 10µ
SYMBOL cap 224 272 R0
SYMATTR InstName CB
SYMATTR Value 1n
SYMBOL res 320 256 R0
SYMATTR InstName R2
SYMATTR Value 20k
SYMBOL res 320 -16 R0
SYMATTR InstName R1
SYMATTR Value 30k
SYMBOL ind 560 -32 R0
SYMATTR InstName L1
SYMATTR Value 500µ
SYMBOL BS170 528 128 R0
SYMATTR InstName U1
SYMBOL res 560 256 R0
SYMATTR InstName RE1
SYMATTR Value 1.5k
SYMBOL res 560 400 R0
SYMATTR InstName RE2
SYMATTR Value 470
SYMBOL cap 768 144 R0
SYMATTR InstName C1
SYMATTR Value 75.8p
SYMBOL cap 768 416 R0
SYMATTR InstName C2
SYMATTR Value 379p
SYMBOL cap 928 272 R0
SYMATTR InstName CT
SYMATTR Value 16p
TEXT -112 328 Left 2 !;op
TEXT -152 288 Left 2 !.tran 0 1m 0 100n
